
     RDKit          3D

 15 15  0  0  0  0  0  0  0  0999 V2000
   40.4830   50.2660   41.7330 C   0  0  0  0  0  0  0  0  0  0  0  0
   40.1280   50.2000   40.3590 O   0  0  0  0  0  0  0  0  0  0  0  0
   39.5070   51.2370   39.7530 C   0  0  0  0  0  0  0  0  0  0  0  0
   39.1610   52.2900   40.2930 O   0  0  0  0  0  0  0  0  0  0  0  0
   39.1710   50.9640   38.2700 C   0  0  0  0  0  0  0  0  0  0  0  0
   38.3150   49.6730   37.9670 C   0  0  0  0  0  0  0  0  0  0  0  0
   37.3710   49.3430   39.0640 N   0  0  0  0  0  0  0  0  0  0  0  0
   37.5300   49.7680   36.6110 C   0  0  0  0  0  0  0  0  0  0  0  0
   37.7410   50.7560   35.9030 O   0  0  0  0  0  0  0  0  0  0  0  0
   36.6690   48.7930   36.2080 N   0  0  0  0  0  0  0  0  0  0  0  0
   35.9600   48.8730   34.9400 C   0  0  0  0  0  0  0  0  0  0  0  0
   35.1820   47.5760   34.7640 C   0  0  0  0  0  0  0  0  0  0  0  0
   34.9920   47.1250   36.1830 C   0  0  0  0  0  0  0  0  0  0  0  0
   33.9460   47.7950   36.6640 F   0  0  0  0  0  0  0  0  0  0  0  0
   36.2840   47.5750   36.8950 C   0  0  0  0  0  0  0  0  0  0  0  0
  1  2  1  0
  2  3  1  0
  3  4  2  0
  3  5  1  0
  5  6  1  0
  6  7  1  0
  6  8  1  0
  8  9  2  0
  8 10  1  0
 10 11  1  0
 11 12  1  0
 12 13  1  0
 13 14  1  0
 13 15  1  0
 10 15  1  0
M  END
